12
Lattice="6.01608 0.0 0.0 0.0 6.01608 0.0 0.0 0.0 6.01608" Properties="species:S:1:pos:R:3" pbc="T T T" eof="0.42099"
Si 3.8165 2.43346 2.81382
Si 1.03643 1.42373 1.67474
Si 5.25131 5.27858 4.49269
Si 1.03369 1.42581 3.833
Si -0.407819 3.08607 1.09407
Si 3.81525 0.277147 2.81667
Si 2.47248 3.09512 1.10303
Si 2.37876 5.26824 4.48793
Si 3.81439 4.99887 0.752981
Si 5.20339 3.06216 4.44502
Si 1.02358 4.92439 0.830382
Si 2.43205 3.0546 4.45418
