22
Lattice="7.17941 0.0 0.0 0.0 7.17941 0.0 0.0 0.0 7.17941" Properties="species:S:1:pos:R:3" pbc="T T T" eof="-0.0389454545454545"
Si 4.80232 2.55003 1.59172
Si 6.6507 6.37433 1.58877
Si 8.07907 1.8265 6.20726
Si 2.74056 3.1478 7.51784
Si 2.60245 5.28387 6.30157
Si 1.37292 2.75701 2.27123
Si 3.61678 5.15069 4.12752
Si 6.91763 1.44073 1.09219
Si 5.30062 3.37777 3.79917
Si 2.873 0.507995 6.65883
Si 2.96582 8.17818 1.81488
Si 6.12155 5.66187 3.88767
Li 4.99874 6.34776 6.24098
Li 0.757355 0.558645 3.65541
Li 1.80523 5.49926 2.11172
Li 4.81832 0.551485 3.53839
Li 0.0528715 4.09951 7.57988
Li 2.91972 2.45462 4.61574
Li 4.37084 5.21219 1.58372
Li 5.26205 2.11909 6.1736
Li 0.390689 6.55832 6.32198
Li 0.702256 3.9558 4.59264
