31
Lattice="8.0767 0.0 0.0 0.0 8.0767 0.0 0.0 0.0 8.0767" Properties="species:S:1:pos:R:3" pbc="T T T" eof="-0.115424516129032"
Si 6.04692 5.41005 -0.776462
Si 7.58305 6.28092 0.83669
Si 7.79744 -0.0466394 4.3307
Si 4.7288 4.42407 8.99211
Si 1.30234 7.39803 7.75298
Si 1.12151 3.39383 1.88973
Si 4.48861 5.60508 2.98566
Si 5.36577 1.21552 1.46642
Si 7.54337 4.17724 5.68856
Si 2.80299 3.3429 8.28075
Si 6.27397 7.2758 2.54632
Si 8.88158 6.28918 5.61717
Li 6.83464 8.14386 7.01456
Li 4.06062 1.34459 7.08693
Li 10.6189 -0.575929 4.04771
Li 4.43287 7.06541 8.75906
Li 4.97966 3.8838 5.26737
Li 2.62792 0.948057 1.29227
Li -0.0652775 0.971705 1.66603
Li 2.3344 4.62107 4.25243
Li 5.4564 1.09601 4.18365
Li 6.85584 3.02138 0.094204
Li 9.24725 1.9543 6.87245
Li 5.9669 6.35933 4.98096
Li 6.44953 3.41588 2.74589
Li 0.645894 2.30046 4.13271
Li 8.08099 5.46454 3.28655
Li 2.2897 5.68454 1.48531
Li 0.857374 4.68899 7.65834
Li 3.67844 2.85593 2.71998
Li 3.25933 -2.30789 6.75093
