37
Lattice="8.45674 0.0 0.0 0.0 8.45674 0.0 0.0 0.0 8.45674" Properties="species:S:1:pos:R:3" pbc="T T T" eof="-0.130851891891892"
Si 5.18489 3.32211 2.13662
Si 8.28372 7.11787 2.88883
Si 10.5925 1.49227 5.83926
Si 3.73777 5.42103 10.5377
Si 2.96385 6.02913 8.36446
Si 0.970536 2.51718 1.25691
Si 3.41679 5.23384 6.18868
Si 8.71295 1.42031 -0.892514
Si 6.14602 2.51945 4.188
Si 3.84026 1.03959 7.52803
Si 3.29784 10.3534 1.29797
Si 7.58285 6.26866 5.09369
Li 5.03962 7.13879 6.7381
Li 1.54242 0.838699 3.25147
Li 4.19873 7.92993 1.20365
Li 6.0535 -0.51635 3.86221
Li 0.881283 5.34707 6.67225
Li 2.58219 3.65491 3.77297
Li 5.14269 5.24994 4.16694
Li 2.22896 3.29565 7.68921
Li 1.41508 8.20673 9.34665
Li 2.15827 6.47174 4.04696
Li 6.26903 4.45699 6.21874
Li -0.0488684 0.121754 5.2089
Li 7.55578 1.22658 2.45418
Li 7.80263 4.31808 3.16732
Li 6.00815 1.59475 8.77338
Li 9.63676 5.31749 1.48298
Li 4.21944 2.90177 5.83357
Li 8.39046 3.00448 5.43334
Li 6.26546 6.03081 1.48344
Li 2.17392 -0.849708 6.68189
Li 7.74941 7.39035 7.70732
Li 6.22559 1.25892 6.33255
Li 4.03218 1.201 3.75912
Li 4.63272 4.04977 -0.18192
Li 7.60151 3.77221 0.138623
