48
Lattice="9.21796 0.0 0.0 0.0 9.21796 0.0 0.0 0.0 9.21796" Properties="species:S:1:pos:R:3" pbc="T T T" eof="-0.15503"
Si 7.90391 8.66526 -1.82964
Si 6.95339 10.2545 -0.194764
Si 8.31707 2.3097 3.95724
Si 2.68525 1.47946 8.3181
Si 2.15647 9.24334 10.2468
Si 1.38152 3.04004 4.42035
Si 5.97024 4.45425 6.11083
Si 4.18904 -1.17936 1.90717
Si 7.57455 5.59158 10.4625
Si 0.392168 4.6724 9.62398
Si 4.83422 8.77306 4.15633
Si 10.9062 5.44736 5.05297
Li 7.32774 11.2299 6.5597
Li 4.44168 -0.38093 8.36105
Li 4.29907 6.19102 4.08011
Li -0.166883 7.63555 0.454929
Li -1.93515 3.74869 8.46371
Li 7.68485 2.94858 1.54013
Li 8.49407 4.38793 5.57919
Li 2.71045 3.84601 9.28806
Li 11.7194 6.67016 0.505292
Li 2.86414 -1.49664 5.66653
Li 5.67894 11.4079 4.43441
Li 3.39355 1.09271 5.91564
Li 2.87056 1.0521 3.34699
Li 7.32617 9.27816 4.8706
Li 3.68673 3.81054 5.19048
Li 9.03583 7.25513 5.41474
Li 1.47897 3.388 7.01739
Li 10.1896 5.99664 7.49355
Li 4.42906 1.58965 1.04828
Li 6.4352 7.83686 0.38677
Li 10.4112 11.6885 1.86942
Li 9.3768 10.8583 8.77225
Li 0.541883 0.918186 5.70583
Li 11.0297 7.44972 3.12432
Li 9.23622 4.88778 3.02803
Li 6.44849 9.80326 2.35422
Li 5.98979 7.23436 5.99188
Li 7.38483 6.08724 7.85622
Li 2.62019 4.63227 2.6744
Li 9.12836 9.51352 2.48672
Li 6.575 4.40859 3.47476
Li 3.88163 5.60296 7.16446
Li 1.4183 8.64886 7.81265
Li 5.08497 5.52059 0.954298
Li 6.80116 7.16505 3.08985
Li 4.91362 2.67873 7.78719
