17
Lattice="6.61644 0.0 0.0 0.0 6.61644 0.0 0.0 0.0 6.61644" Properties="species:S:1:pos:R:3" pbc="T T T" eof="0.140308235294118"
Si 5.0389 3.1224 0.121999
Si 6.10954 4.69217 1.62248
Si 5.42191 0.355686 4.48088
Si 2.77571 3.98364 6.67577
Si 0.315073 6.34991 6.71332
Si 1.01418 3.04521 2.44047
Si 3.2462 4.00065 2.39387
Si 4.73042 0.738544 0.239798
Si 6.57469 2.77123 4.79549
Si 1.26519 2.05644 6.76278
Si 4.34165 6.19117 2.37249
Si 7.15486 5.32641 4.57269
Li 4.58442 4.46228 4.61935
Li 2.74358 2.38039 4.46035
Li 8.24575 -0.146303 2.44137
Li 2.68398 6.36609 5.58782
Li 5.0979 2.15197 2.62678
