18
Lattice="6.92026 0.0 0.0 0.0 6.92026 0.0 0.0 0.0 6.92026" Properties="species:S:1:pos:R:3" pbc="T T T" eof="0.0691866666666667"
Si 5.24913 3.58377 0.74937
Si 5.91193 5.90241 0.357382
Si 5.67545 1.7261 4.58768
Si 3.96176 2.1424 6.39773
Si 1.3253 6.48722 7.54801
Si 1.90257 2.58809 2.44351
Si 4.42836 3.24284 3.04559
Si 3.97571 0.134909 0.556091
Si 7.01582 3.1003 6.23473
Si 1.61163 1.81388 7.25828
Si 3.5625 7.95174 2.93698
Si 7.34666 5.48026 5.52993
Li 4.79431 6.3237 4.80333
Li 1.13553 0.611946 4.46322
Li 2.96963 5.25556 2.101
Li 0.0171758 4.78135 2.70441
Li 2.30032 3.87749 5.00186
Li 6.43132 1.12172 1.9045
