19
Lattice="6.82281 0.0 0.0 0.0 6.82281 0.0 0.0 0.0 6.82281" Properties="species:S:1:pos:R:3" pbc="T T T" eof="0.0608147368421053"
Si 5.23305 3.22136 0.0178648
Si 6.12277 4.88764 1.46811
Si 5.35202 0.272139 4.46624
Si 2.94998 4.08795 6.91241
Si 0.452374 6.77054 7.15741
Si 0.937206 3.28917 2.26561
Si 3.27521 3.88839 2.48702
Si 5.03303 0.783876 0.172409
Si 6.73114 3.48364 4.8713
Si 1.21777 2.48152 6.57413
Si 4.31705 6.1749 2.48037
Si 7.29136 5.79219 4.95572
Li 4.48618 4.71949 4.76724
Li 3.61355 2.25477 4.96251
Li 8.43275 -0.990349 2.55624
Li 2.76452 6.56161 5.91915
Li 5.38305 2.2732 2.76179
Li 2.7666 1.335 1.46983
Li 0.910755 1.30981 3.9757
